  Page 1                                    Thu Feb  9 10:51:17 2023

  ******************************************************************
  *                           E P A N E T                          *
  *                   Hydraulic and Water Quality                  *
  *                   Analysis for Pipe Networks                   *
  *                         Version 2.2                            *
  ******************************************************************
  
  Analysis begun Thu Feb  9 10:51:17 2023

  Processing MSX input file example2.msx
  
  
Page 1                                               EPANET-MSX 2.0.0
  
  ******************************************************************
  *                      E P A N E T  -  M S X                     *
  *                   Multi-Species Water Quality                  *
  *                   Analysis for Pipe  Networks                  *
  *                           Version 2.0.0                        *
  ******************************************************************
  
  NET2 Chlorine Decay and Dispersion

  
  <<< Node 2 >>>
  
  Time            CL2
  hr:min         MG/L
  -------  ----------
     0:00        0.50
     1:00        0.76
     2:00        0.75
     3:00        0.76
     4:00        0.76
     5:00        0.75
     6:00        0.76
     7:00        0.73
     8:00        0.71
     9:00        0.69
    10:00        0.65
    11:00        0.59
    12:00        0.52
    13:00        0.74
    14:00        0.75
    15:00        0.76
    16:00        0.76
    17:00        0.75
    18:00        0.69
    19:00        0.68
    20:00        0.66
    21:00        0.63
    22:00        0.59
    23:00        0.56
    24:00        0.50
    25:00        0.74
    26:00        0.76
    27:00        0.75
    28:00        0.76
    29:00        0.76
    30:00        0.75
    31:00        0.76
    32:00        0.72
    33:00        0.69
    34:00        0.64
    35:00        0.61
    36:00        0.57
    37:00        0.53
    38:00        0.75
    39:00        0.76
    40:00        0.76
    41:00        0.76
    42:00        0.76
    43:00        0.69
    44:00        0.68
    45:00        0.64
    46:00        0.61
    47:00        0.57
    48:00        0.52
    49:00        0.51
    50:00        0.75
    51:00        0.75
    52:00        0.76
    53:00        0.76
    54:00        0.75
    55:00        0.76
  
  <<< Node 20 >>>
  
  Time            CL2
  hr:min         MG/L
  -------  ----------
     0:00        0.50
     1:00        0.46
     2:00        0.42
     3:00        0.37
     4:00        0.33
     5:00        0.48
     6:00        0.48
     7:00        0.50
     8:00        0.49
     9:00        0.47
    10:00        0.40
    11:00        0.12
    12:00        0.11
    13:00        0.11
    14:00        0.10
    15:00        0.08
    16:00        0.44
    17:00        0.38
    18:00        0.46
    19:00        0.43
    20:00        0.47
    21:00        0.42
    22:00        0.12
    23:00        0.13
    24:00        0.12
    25:00        0.11
    26:00        0.11
    27:00        0.09
    28:00        0.25
    29:00        0.45
    30:00        0.47
    31:00        0.48
    32:00        0.50
    33:00        0.48
    34:00        0.14
    35:00        0.13
    36:00        0.14
    37:00        0.13
    38:00        0.12
    39:00        0.12
    40:00        0.11
    41:00        0.08
    42:00        0.27
    43:00        0.42
    44:00        0.46
    45:00        0.48
    46:00        0.15
    47:00        0.13
    48:00        0.14
    49:00        0.13
    50:00        0.13
    51:00        0.12
    52:00        0.10
    53:00        0.26
    54:00        0.46
    55:00        0.46
  
  <<< Node 23 >>>
  
  Time            CL2
  hr:min         MG/L
  -------  ----------
     0:00        0.50
     1:00        0.43
     2:00        0.37
     3:00        0.54
     4:00        0.54
     5:00        0.55
     6:00        0.55
     7:00        0.52
     8:00        0.13
     9:00        0.13
    10:00        0.13
    11:00        0.13
    12:00        0.13
    13:00        0.09
    14:00        0.48
    15:00        0.53
    16:00        0.53
    17:00        0.55
    18:00        0.15
    19:00        0.15
    20:00        0.15
    21:00        0.15
    22:00        0.15
    23:00        0.14
    24:00        0.14
    25:00        0.11
    26:00        0.30
    27:00        0.53
    28:00        0.51
    29:00        0.53
    30:00        0.54
    31:00        0.54
    32:00        0.16
    33:00        0.16
    34:00        0.16
    35:00        0.16
    36:00        0.16
    37:00        0.15
    38:00        0.12
    39:00        0.47
    40:00        0.51
    41:00        0.54
    42:00        0.56
    43:00        0.54
    44:00        0.17
    45:00        0.17
    46:00        0.17
    47:00        0.17
    48:00        0.17
    49:00        0.16
    50:00        0.13
    51:00        0.31
    52:00        0.52
    53:00        0.52
    54:00        0.52
    55:00        0.53
  
  <<< Node 34 >>>
  
  Time            CL2
  hr:min         MG/L
  -------  ----------
     0:00        0.50
     1:00        0.49
     2:00        0.48
     3:00        0.47
     4:00        0.46
     5:00        0.45
     6:00        0.45
     7:00        0.44
     8:00        0.43
     9:00        0.42
    10:00        0.41
    11:00        0.40
    12:00        0.39
    13:00        0.38
    14:00        0.38
    15:00        0.37
    16:00        0.36
    17:00        0.35
    18:00        0.34
    19:00        0.34
    20:00        0.33
    21:00        0.31
    22:00        0.30
    23:00        0.28
    24:00        0.27
    25:00        0.26
    26:00        0.25
    27:00        0.24
    28:00        0.24
    29:00        0.23
    30:00        0.22
    31:00        0.21
    32:00        0.19
    33:00        0.18
    34:00        0.17
    35:00        0.16
    36:00        0.16
    37:00        0.15
    38:00        0.15
    39:00        0.15
    40:00        0.14
    41:00        0.14
    42:00        0.14
    43:00        0.13
    44:00        0.13
    45:00        0.13
    46:00        0.12
    47:00        0.12
    48:00        0.12
    49:00        0.12
    50:00        0.13
    51:00        0.13
    52:00        0.13
    53:00        0.13
    54:00        0.13
    55:00        0.13
  
  <<< Node 26 >>>
  
  Time            CL2
  hr:min         MG/L
  -------  ----------
     0:00        0.10
     1:00        0.11
     2:00        0.11
     3:00        0.12
     4:00        0.13
     5:00        0.13
     6:00        0.14
     7:00        0.14
     8:00        0.14
     9:00        0.14
    10:00        0.13
    11:00        0.13
    12:00        0.13
    13:00        0.13
    14:00        0.13
    15:00        0.14
    16:00        0.15
    17:00        0.16
    18:00        0.16
    19:00        0.15
    20:00        0.15
    21:00        0.15
    22:00        0.15
    23:00        0.15
    24:00        0.15
    25:00        0.14
    26:00        0.14
    27:00        0.14
    28:00        0.15
    29:00        0.16
    30:00        0.16
    31:00        0.17
    32:00        0.17
    33:00        0.16
    34:00        0.16
    35:00        0.16
    36:00        0.16
    37:00        0.16
    38:00        0.15
    39:00        0.15
    40:00        0.16
    41:00        0.17
    42:00        0.18
    43:00        0.18
    44:00        0.18
    45:00        0.18
    46:00        0.17
    47:00        0.17
    48:00        0.17
    49:00        0.17
    50:00        0.16
    51:00        0.16
    52:00        0.17
    53:00        0.17
    54:00        0.18
    55:00        0.19
  

  Water Quality Mass Balance: CL2 (MG)
  ================================
  Initial Mass:       6.02522e+05
  Mass Inflow:        3.53468e+06
  Mass Outflow:       1.40042e+06
  Mass Reacted:      -1.77806e+06
  Final Mass:         9.58721e+05
  Mass Ratio:         1.00000
  ================================

  
  Analysis ended Thu Feb  9 10:51:22 2023
